<nodes >
 <node id="TL" x="0.0" y="0.0" type="traffic_light"/>

 <node id="W" x="-500.0" y="0.0" type="dead_end"/>
 <node id="S" x="0.0" y="-500.0" type="dead_end"/>
 <node id="N" x="0.0" y="+500.0" type="dead_end"/>
 <node id="E" x="500.0" y="0.0" type="dead_end"/>

</nodes>