<routes>
            <vType accel="1.0" decel="4.5" id="standard_car" length="5.0" minGap="2.5" maxSpeed="25" sigma="0.5" />
            <route id="N-W" edges="N-TL TL-W"/> 
            <route id="N-S" edges="N-TL TL-S"/>
            <route id="N-E" edges="N-TL TL-E"/> 
        
            <route id="S-E" edges="S-TL TL-E"/>
            <route id="S-N" edges="S-TL TL-N"/>
            <route id="S-W" edges="S-TL TL-W"/> 
            
            <route id="W-S" edges="W-TL TL-S"/>
            <route id="W-E" edges="W-TL TL-E"/>
            <route id="W-N" edges="W-TL TL-N"/> 
            
            <route id="E-N" edges="E-TL TL-N"/>
            <route id="E-W" edges="E-TL TL-W"/>
            <route id="E-S" edges="E-TL TL-S"/> 
    <vehicle id="E-S_0" type="standard_car" route="E-S" depart="0.0" departLane="random" departSpeed="10" />
    <vehicle id="W-E_1" type="standard_car" route="W-E" depart="3.0" departLane="random" departSpeed="10" />
    <vehicle id="S-E_2" type="standard_car" route="S-E" depart="5.0" departLane="random" departSpeed="10" />
    <vehicle id="S-N_3" type="standard_car" route="S-N" depart="10.0" departLane="random" departSpeed="10" />
    <vehicle id="S-W_4" type="standard_car" route="S-W" depart="10.0" departLane="random" departSpeed="10" />
    <vehicle id="N-W_5" type="standard_car" route="N-W" depart="13.0" departLane="random" departSpeed="10" />
    <vehicle id="W-S_6" type="standard_car" route="W-S" depart="15.0" departLane="random" departSpeed="10" />
    <vehicle id="S-E_7" type="standard_car" route="S-E" depart="20.0" departLane="random" departSpeed="10" />
    <vehicle id="N-W_8" type="standard_car" route="N-W" depart="22.0" departLane="random" departSpeed="10" />
    <vehicle id="N-E_9" type="standard_car" route="N-E" depart="25.0" departLane="random" departSpeed="10" />
    <vehicle id="S-W_10" type="standard_car" route="S-W" depart="28.0" departLane="random" departSpeed="10" />
    <vehicle id="N-S_11" type="standard_car" route="N-S" depart="35.0" departLane="random" departSpeed="10" />
    <vehicle id="W-N_12" type="standard_car" route="W-N" depart="35.0" departLane="random" departSpeed="10" />
    <vehicle id="N-S_13" type="standard_car" route="N-S" depart="40.0" departLane="random" departSpeed="10" />
    <vehicle id="E-S_14" type="standard_car" route="E-S" depart="40.0" departLane="random" departSpeed="10" />
    <vehicle id="N-E_15" type="standard_car" route="N-E" depart="40.0" departLane="random" departSpeed="10" />
    <vehicle id="S-W_16" type="standard_car" route="S-W" depart="46.0" departLane="random" departSpeed="10" />
    <vehicle id="E-S_17" type="standard_car" route="E-S" depart="47.0" departLane="random" departSpeed="10" />
    <vehicle id="W-S_18" type="standard_car" route="W-S" depart="48.0" departLane="random" departSpeed="10" />
    <vehicle id="S-N_19" type="standard_car" route="S-N" depart="49.0" departLane="random" departSpeed="10" />
    <vehicle id="N-W_20" type="standard_car" route="N-W" depart="62.0" departLane="random" departSpeed="10" />
    <vehicle id="E-W_21" type="standard_car" route="E-W" depart="64.0" departLane="random" departSpeed="10" />
    <vehicle id="N-W_22" type="standard_car" route="N-W" depart="67.0" departLane="random" departSpeed="10" />
    <vehicle id="W-E_23" type="standard_car" route="W-E" depart="67.0" departLane="random" departSpeed="10" />
    <vehicle id="W-S_24" type="standard_car" route="W-S" depart="71.0" departLane="random" departSpeed="10" />
    <vehicle id="S-E_25" type="standard_car" route="S-E" depart="72.0" departLane="random" departSpeed="10" />
    <vehicle id="E-N_26" type="standard_car" route="E-N" depart="73.0" departLane="random" departSpeed="10" />
    <vehicle id="S-N_27" type="standard_car" route="S-N" depart="77.0" departLane="random" departSpeed="10" />
    <vehicle id="S-W_28" type="standard_car" route="S-W" depart="81.0" departLane="random" departSpeed="10" />
    <vehicle id="N-S_29" type="standard_car" route="N-S" depart="83.0" departLane="random" departSpeed="10" />
    <vehicle id="S-W_30" type="standard_car" route="S-W" depart="83.0" departLane="random" departSpeed="10" />
    <vehicle id="W-S_31" type="standard_car" route="W-S" depart="84.0" departLane="random" departSpeed="10" />
    <vehicle id="N-W_32" type="standard_car" route="N-W" depart="85.0" departLane="random" departSpeed="10" />
    <vehicle id="W-S_33" type="standard_car" route="W-S" depart="85.0" departLane="random" departSpeed="10" />
    <vehicle id="N-E_34" type="standard_car" route="N-E" depart="93.0" departLane="random" departSpeed="10" />
    <vehicle id="W-E_35" type="standard_car" route="W-E" depart="94.0" departLane="random" departSpeed="10" />
    <vehicle id="S-E_36" type="standard_car" route="S-E" depart="100.0" departLane="random" departSpeed="10" />
    <vehicle id="S-W_37" type="standard_car" route="S-W" depart="101.0" departLane="random" departSpeed="10" />
    <vehicle id="N-E_38" type="standard_car" route="N-E" depart="110.0" departLane="random" departSpeed="10" />
    <vehicle id="E-W_39" type="standard_car" route="E-W" depart="112.0" departLane="random" departSpeed="10" />
    <vehicle id="E-W_40" type="standard_car" route="E-W" depart="113.0" departLane="random" departSpeed="10" />
    <vehicle id="N-S_41" type="standard_car" route="N-S" depart="117.0" departLane="random" departSpeed="10" />
    <vehicle id="S-W_42" type="standard_car" route="S-W" depart="119.0" departLane="random" departSpeed="10" />
    <vehicle id="N-S_43" type="standard_car" route="N-S" depart="120.0" departLane="random" departSpeed="10" />
    <vehicle id="S-E_44" type="standard_car" route="S-E" depart="124.0" departLane="random" departSpeed="10" />
    <vehicle id="S-E_45" type="standard_car" route="S-E" depart="124.0" departLane="random" departSpeed="10" />
    <vehicle id="W-N_46" type="standard_car" route="W-N" depart="133.0" departLane="random" departSpeed="10" />
    <vehicle id="N-S_47" type="standard_car" route="N-S" depart="135.0" departLane="random" departSpeed="10" />
    <vehicle id="W-E_48" type="standard_car" route="W-E" depart="141.0" departLane="random" departSpeed="10" />
    <vehicle id="S-E_49" type="standard_car" route="S-E" depart="145.0" departLane="random" departSpeed="10" />
    <vehicle id="N-W_50" type="standard_car" route="N-W" depart="153.0" departLane="random" departSpeed="10" />
    <vehicle id="E-N_51" type="standard_car" route="E-N" depart="158.0" departLane="random" departSpeed="10" />
    <vehicle id="E-N_52" type="standard_car" route="E-N" depart="162.0" departLane="random" departSpeed="10" />
    <vehicle id="W-E_53" type="standard_car" route="W-E" depart="163.0" departLane="random" departSpeed="10" />
    <vehicle id="N-S_54" type="standard_car" route="N-S" depart="166.0" departLane="random" departSpeed="10" />
    <vehicle id="S-W_55" type="standard_car" route="S-W" depart="166.0" departLane="random" departSpeed="10" />
    <vehicle id="E-W_56" type="standard_car" route="E-W" depart="171.0" departLane="random" departSpeed="10" />
    <vehicle id="W-S_57" type="standard_car" route="W-S" depart="172.0" departLane="random" departSpeed="10" />
    <vehicle id="N-W_58" type="standard_car" route="N-W" depart="172.0" departLane="random" departSpeed="10" />
    <vehicle id="E-W_59" type="standard_car" route="E-W" depart="177.0" departLane="random" departSpeed="10" />
    <vehicle id="N-E_60" type="standard_car" route="N-E" depart="183.0" departLane="random" departSpeed="10" />
    <vehicle id="N-S_61" type="standard_car" route="N-S" depart="185.0" departLane="random" departSpeed="10" />
    <vehicle id="E-N_62" type="standard_car" route="E-N" depart="188.0" departLane="random" departSpeed="10" />
    <vehicle id="E-N_63" type="standard_car" route="E-N" depart="190.0" departLane="random" departSpeed="10" />
    <vehicle id="W-S_64" type="standard_car" route="W-S" depart="193.0" departLane="random" departSpeed="10" />
    <vehicle id="W-E_65" type="standard_car" route="W-E" depart="194.0" departLane="random" departSpeed="10" />
    <vehicle id="E-W_66" type="standard_car" route="E-W" depart="194.0" departLane="random" departSpeed="10" />
    <vehicle id="N-E_67" type="standard_car" route="N-E" depart="205.0" departLane="random" departSpeed="10" />
    <vehicle id="S-N_68" type="standard_car" route="S-N" depart="205.0" departLane="random" departSpeed="10" />
    <vehicle id="N-W_69" type="standard_car" route="N-W" depart="207.0" departLane="random" departSpeed="10" />
    <vehicle id="N-W_70" type="standard_car" route="N-W" depart="207.0" departLane="random" departSpeed="10" />
    <vehicle id="E-S_71" type="standard_car" route="E-S" depart="216.0" departLane="random" departSpeed="10" />
    <vehicle id="S-E_72" type="standard_car" route="S-E" depart="222.0" departLane="random" departSpeed="10" />
    <vehicle id="W-E_73" type="standard_car" route="W-E" depart="227.0" departLane="random" departSpeed="10" />
    <vehicle id="W-E_74" type="standard_car" route="W-E" depart="234.0" departLane="random" departSpeed="10" />
    <vehicle id="W-S_75" type="standard_car" route="W-S" depart="236.0" departLane="random" departSpeed="10" />
    <vehicle id="N-W_76" type="standard_car" route="N-W" depart="239.0" departLane="random" departSpeed="10" />
    <vehicle id="N-W_77" type="standard_car" route="N-W" depart="240.0" departLane="random" departSpeed="10" />
    <vehicle id="W-N_78" type="standard_car" route="W-N" depart="242.0" departLane="random" departSpeed="10" />
    <vehicle id="S-E_79" type="standard_car" route="S-E" depart="246.0" departLane="random" departSpeed="10" />
    <vehicle id="N-S_80" type="standard_car" route="N-S" depart="247.0" departLane="random" departSpeed="10" />
    <vehicle id="N-E_81" type="standard_car" route="N-E" depart="248.0" departLane="random" departSpeed="10" />
    <vehicle id="E-N_82" type="standard_car" route="E-N" depart="249.0" departLane="random" departSpeed="10" />
    <vehicle id="S-E_83" type="standard_car" route="S-E" depart="249.0" departLane="random" departSpeed="10" />
    <vehicle id="S-N_84" type="standard_car" route="S-N" depart="251.0" departLane="random" departSpeed="10" />
    <vehicle id="W-S_85" type="standard_car" route="W-S" depart="252.0" departLane="random" departSpeed="10" />
    <vehicle id="N-S_86" type="standard_car" route="N-S" depart="252.0" departLane="random" departSpeed="10" />
    <vehicle id="S-W_87" type="standard_car" route="S-W" depart="255.0" departLane="random" departSpeed="10" />
    <vehicle id="S-W_88" type="standard_car" route="S-W" depart="256.0" departLane="random" departSpeed="10" />
    <vehicle id="E-W_89" type="standard_car" route="E-W" depart="259.0" departLane="random" departSpeed="10" />
    <vehicle id="W-N_90" type="standard_car" route="W-N" depart="263.0" departLane="random" departSpeed="10" />
    <vehicle id="N-S_91" type="standard_car" route="N-S" depart="264.0" departLane="random" departSpeed="10" />
    <vehicle id="W-N_92" type="standard_car" route="W-N" depart="267.0" departLane="random" departSpeed="10" />
    <vehicle id="N-S_93" type="standard_car" route="N-S" depart="270.0" departLane="random" departSpeed="10" />
    <vehicle id="E-W_94" type="standard_car" route="E-W" depart="272.0" departLane="random" departSpeed="10" />
    <vehicle id="N-S_95" type="standard_car" route="N-S" depart="273.0" departLane="random" departSpeed="10" />
    <vehicle id="N-S_96" type="standard_car" route="N-S" depart="273.0" departLane="random" departSpeed="10" />
    <vehicle id="W-S_97" type="standard_car" route="W-S" depart="274.0" departLane="random" departSpeed="10" />
    <vehicle id="E-S_98" type="standard_car" route="E-S" depart="274.0" departLane="random" departSpeed="10" />
    <vehicle id="N-W_99" type="standard_car" route="N-W" depart="283.0" departLane="random" departSpeed="10" />
    <vehicle id="W-S_100" type="standard_car" route="W-S" depart="283.0" departLane="random" departSpeed="10" />
    <vehicle id="W-S_101" type="standard_car" route="W-S" depart="283.0" departLane="random" departSpeed="10" />
    <vehicle id="W-N_102" type="standard_car" route="W-N" depart="285.0" departLane="random" departSpeed="10" />
    <vehicle id="W-S_103" type="standard_car" route="W-S" depart="287.0" departLane="random" departSpeed="10" />
    <vehicle id="S-N_104" type="standard_car" route="S-N" depart="290.0" departLane="random" departSpeed="10" />
    <vehicle id="W-E_105" type="standard_car" route="W-E" depart="291.0" departLane="random" departSpeed="10" />
    <vehicle id="E-S_106" type="standard_car" route="E-S" depart="296.0" departLane="random" departSpeed="10" />
    <vehicle id="S-W_107" type="standard_car" route="S-W" depart="298.0" departLane="random" departSpeed="10" />
    <vehicle id="S-W_108" type="standard_car" route="S-W" depart="299.0" departLane="random" departSpeed="10" />
    <vehicle id="W-E_109" type="standard_car" route="W-E" depart="303.0" departLane="random" departSpeed="10" />
    <vehicle id="W-N_110" type="standard_car" route="W-N" depart="304.0" departLane="random" departSpeed="10" />
    <vehicle id="E-N_111" type="standard_car" route="E-N" depart="307.0" departLane="random" departSpeed="10" />
    <vehicle id="N-E_112" type="standard_car" route="N-E" depart="313.0" departLane="random" departSpeed="10" />
    <vehicle id="S-W_113" type="standard_car" route="S-W" depart="316.0" departLane="random" departSpeed="10" />
    <vehicle id="S-N_114" type="standard_car" route="S-N" depart="316.0" departLane="random" departSpeed="10" />
    <vehicle id="E-S_115" type="standard_car" route="E-S" depart="318.0" departLane="random" departSpeed="10" />
    <vehicle id="N-E_116" type="standard_car" route="N-E" depart="319.0" departLane="random" departSpeed="10" />
    <vehicle id="W-N_117" type="standard_car" route="W-N" depart="326.0" departLane="random" departSpeed="10" />
    <vehicle id="S-W_118" type="standard_car" route="S-W" depart="330.0" departLane="random" departSpeed="10" />
    <vehicle id="E-N_119" type="standard_car" route="E-N" depart="336.0" departLane="random" departSpeed="10" />
    <vehicle id="W-E_120" type="standard_car" route="W-E" depart="338.0" departLane="random" departSpeed="10" />
    <vehicle id="N-W_121" type="standard_car" route="N-W" depart="338.0" departLane="random" departSpeed="10" />
    <vehicle id="S-E_122" type="standard_car" route="S-E" depart="338.0" departLane="random" departSpeed="10" />
    <vehicle id="S-E_123" type="standard_car" route="S-E" depart="340.0" departLane="random" departSpeed="10" />
    <vehicle id="E-N_124" type="standard_car" route="E-N" depart="345.0" departLane="random" departSpeed="10" />
    <vehicle id="N-E_125" type="standard_car" route="N-E" depart="346.0" departLane="random" departSpeed="10" />
    <vehicle id="E-N_126" type="standard_car" route="E-N" depart="346.0" departLane="random" departSpeed="10" />
    <vehicle id="S-N_127" type="standard_car" route="S-N" depart="347.0" departLane="random" departSpeed="10" />
    <vehicle id="E-W_128" type="standard_car" route="E-W" depart="349.0" departLane="random" departSpeed="10" />
    <vehicle id="S-E_129" type="standard_car" route="S-E" depart="350.0" departLane="random" departSpeed="10" />
    <vehicle id="S-E_130" type="standard_car" route="S-E" depart="353.0" departLane="random" departSpeed="10" />
    <vehicle id="E-N_131" type="standard_car" route="E-N" depart="356.0" departLane="random" departSpeed="10" />
    <vehicle id="W-N_132" type="standard_car" route="W-N" depart="359.0" departLane="random" departSpeed="10" />
    <vehicle id="S-E_133" type="standard_car" route="S-E" depart="362.0" departLane="random" departSpeed="10" />
    <vehicle id="E-W_134" type="standard_car" route="E-W" depart="364.0" departLane="random" departSpeed="10" />
    <vehicle id="S-N_135" type="standard_car" route="S-N" depart="365.0" departLane="random" departSpeed="10" />
    <vehicle id="W-S_136" type="standard_car" route="W-S" depart="366.0" departLane="random" departSpeed="10" />
    <vehicle id="E-N_137" type="standard_car" route="E-N" depart="366.0" departLane="random" departSpeed="10" />
    <vehicle id="S-N_138" type="standard_car" route="S-N" depart="368.0" departLane="random" departSpeed="10" />
    <vehicle id="W-N_139" type="standard_car" route="W-N" depart="376.0" departLane="random" departSpeed="10" />
    <vehicle id="E-S_140" type="standard_car" route="E-S" depart="380.0" departLane="random" departSpeed="10" />
    <vehicle id="E-S_141" type="standard_car" route="E-S" depart="383.0" departLane="random" departSpeed="10" />
    <vehicle id="N-W_142" type="standard_car" route="N-W" depart="388.0" departLane="random" departSpeed="10" />
    <vehicle id="S-N_143" type="standard_car" route="S-N" depart="391.0" departLane="random" departSpeed="10" />
    <vehicle id="W-E_144" type="standard_car" route="W-E" depart="392.0" departLane="random" departSpeed="10" />
    <vehicle id="N-S_145" type="standard_car" route="N-S" depart="399.0" departLane="random" departSpeed="10" />
    <vehicle id="E-W_146" type="standard_car" route="E-W" depart="400.0" departLane="random" departSpeed="10" />
    <vehicle id="S-W_147" type="standard_car" route="S-W" depart="405.0" departLane="random" departSpeed="10" />
    <vehicle id="N-W_148" type="standard_car" route="N-W" depart="406.0" departLane="random" departSpeed="10" />
    <vehicle id="S-N_149" type="standard_car" route="S-N" depart="410.0" departLane="random" departSpeed="10" />
    <vehicle id="W-N_150" type="standard_car" route="W-N" depart="413.0" departLane="random" departSpeed="10" />
    <vehicle id="E-N_151" type="standard_car" route="E-N" depart="416.0" departLane="random" departSpeed="10" />
    <vehicle id="S-N_152" type="standard_car" route="S-N" depart="418.0" departLane="random" departSpeed="10" />
    <vehicle id="E-W_153" type="standard_car" route="E-W" depart="422.0" departLane="random" departSpeed="10" />
    <vehicle id="N-W_154" type="standard_car" route="N-W" depart="433.0" departLane="random" departSpeed="10" />
    <vehicle id="N-S_155" type="standard_car" route="N-S" depart="437.0" departLane="random" departSpeed="10" />
    <vehicle id="S-N_156" type="standard_car" route="S-N" depart="440.0" departLane="random" departSpeed="10" />
    <vehicle id="N-E_157" type="standard_car" route="N-E" depart="440.0" departLane="random" departSpeed="10" />
    <vehicle id="E-S_158" type="standard_car" route="E-S" depart="441.0" departLane="random" departSpeed="10" />
    <vehicle id="S-E_159" type="standard_car" route="S-E" depart="442.0" departLane="random" departSpeed="10" />
    <vehicle id="E-N_160" type="standard_car" route="E-N" depart="445.0" departLane="random" departSpeed="10" />
    <vehicle id="S-N_161" type="standard_car" route="S-N" depart="447.0" departLane="random" departSpeed="10" />
    <vehicle id="W-N_162" type="standard_car" route="W-N" depart="449.0" departLane="random" departSpeed="10" />
    <vehicle id="W-N_163" type="standard_car" route="W-N" depart="451.0" departLane="random" departSpeed="10" />
    <vehicle id="W-S_164" type="standard_car" route="W-S" depart="451.0" departLane="random" departSpeed="10" />
    <vehicle id="S-N_165" type="standard_car" route="S-N" depart="458.0" departLane="random" departSpeed="10" />
    <vehicle id="E-N_166" type="standard_car" route="E-N" depart="462.0" departLane="random" departSpeed="10" />
    <vehicle id="E-N_167" type="standard_car" route="E-N" depart="466.0" departLane="random" departSpeed="10" />
    <vehicle id="W-S_168" type="standard_car" route="W-S" depart="467.0" departLane="random" departSpeed="10" />
    <vehicle id="N-E_169" type="standard_car" route="N-E" depart="469.0" departLane="random" departSpeed="10" />
    <vehicle id="N-E_170" type="standard_car" route="N-E" depart="475.0" departLane="random" departSpeed="10" />
    <vehicle id="S-N_171" type="standard_car" route="S-N" depart="481.0" departLane="random" departSpeed="10" />
    <vehicle id="W-E_172" type="standard_car" route="W-E" depart="487.0" departLane="random" departSpeed="10" />
    <vehicle id="S-E_173" type="standard_car" route="S-E" depart="494.0" departLane="random" departSpeed="10" />
    <vehicle id="E-W_174" type="standard_car" route="E-W" depart="501.0" departLane="random" departSpeed="10" />
    <vehicle id="E-N_175" type="standard_car" route="E-N" depart="501.0" departLane="random" departSpeed="10" />
    <vehicle id="W-E_176" type="standard_car" route="W-E" depart="502.0" departLane="random" departSpeed="10" />
    <vehicle id="S-W_177" type="standard_car" route="S-W" depart="504.0" departLane="random" departSpeed="10" />
    <vehicle id="N-E_178" type="standard_car" route="N-E" depart="504.0" departLane="random" departSpeed="10" />
    <vehicle id="N-E_179" type="standard_car" route="N-E" depart="508.0" departLane="random" departSpeed="10" />
    <vehicle id="W-N_180" type="standard_car" route="W-N" depart="508.0" departLane="random" departSpeed="10" />
    <vehicle id="S-E_181" type="standard_car" route="S-E" depart="510.0" departLane="random" departSpeed="10" />
    <vehicle id="W-N_182" type="standard_car" route="W-N" depart="510.0" departLane="random" departSpeed="10" />
    <vehicle id="N-S_183" type="standard_car" route="N-S" depart="511.0" departLane="random" departSpeed="10" />
    <vehicle id="E-S_184" type="standard_car" route="E-S" depart="513.0" departLane="random" departSpeed="10" />
    <vehicle id="W-N_185" type="standard_car" route="W-N" depart="515.0" departLane="random" departSpeed="10" />
    <vehicle id="N-W_186" type="standard_car" route="N-W" depart="516.0" departLane="random" departSpeed="10" />
    <vehicle id="W-E_187" type="standard_car" route="W-E" depart="516.0" departLane="random" departSpeed="10" />
    <vehicle id="W-N_188" type="standard_car" route="W-N" depart="517.0" departLane="random" departSpeed="10" />
    <vehicle id="W-S_189" type="standard_car" route="W-S" depart="518.0" departLane="random" departSpeed="10" />
    <vehicle id="W-N_190" type="standard_car" route="W-N" depart="520.0" departLane="random" departSpeed="10" />
    <vehicle id="W-E_191" type="standard_car" route="W-E" depart="523.0" departLane="random" departSpeed="10" />
    <vehicle id="S-W_192" type="standard_car" route="S-W" depart="524.0" departLane="random" departSpeed="10" />
    <vehicle id="E-S_193" type="standard_car" route="E-S" depart="524.0" departLane="random" departSpeed="10" />
    <vehicle id="W-S_194" type="standard_car" route="W-S" depart="525.0" departLane="random" departSpeed="10" />
    <vehicle id="W-E_195" type="standard_car" route="W-E" depart="525.0" departLane="random" departSpeed="10" />
    <vehicle id="E-W_196" type="standard_car" route="E-W" depart="526.0" departLane="random" departSpeed="10" />
    <vehicle id="N-W_197" type="standard_car" route="N-W" depart="527.0" departLane="random" departSpeed="10" />
    <vehicle id="W-E_198" type="standard_car" route="W-E" depart="531.0" departLane="random" departSpeed="10" />
    <vehicle id="W-E_199" type="standard_car" route="W-E" depart="537.0" departLane="random" departSpeed="10" />
    <vehicle id="N-S_200" type="standard_car" route="N-S" depart="539.0" departLane="random" departSpeed="10" />
    <vehicle id="S-W_201" type="standard_car" route="S-W" depart="539.0" departLane="random" departSpeed="10" />
    <vehicle id="E-W_202" type="standard_car" route="E-W" depart="543.0" departLane="random" departSpeed="10" />
    <vehicle id="N-W_203" type="standard_car" route="N-W" depart="546.0" departLane="random" departSpeed="10" />
    <vehicle id="S-N_204" type="standard_car" route="S-N" depart="546.0" departLane="random" departSpeed="10" />
    <vehicle id="S-N_205" type="standard_car" route="S-N" depart="547.0" departLane="random" departSpeed="10" />
    <vehicle id="W-N_206" type="standard_car" route="W-N" depart="552.0" departLane="random" departSpeed="10" />
    <vehicle id="W-S_207" type="standard_car" route="W-S" depart="553.0" departLane="random" departSpeed="10" />
    <vehicle id="S-W_208" type="standard_car" route="S-W" depart="555.0" departLane="random" departSpeed="10" />
    <vehicle id="W-E_209" type="standard_car" route="W-E" depart="556.0" departLane="random" departSpeed="10" />
    <vehicle id="W-N_210" type="standard_car" route="W-N" depart="559.0" departLane="random" departSpeed="10" />
    <vehicle id="W-E_211" type="standard_car" route="W-E" depart="563.0" departLane="random" departSpeed="10" />
    <vehicle id="N-S_212" type="standard_car" route="N-S" depart="566.0" departLane="random" departSpeed="10" />
    <vehicle id="W-E_213" type="standard_car" route="W-E" depart="567.0" departLane="random" departSpeed="10" />
    <vehicle id="E-W_214" type="standard_car" route="E-W" depart="568.0" departLane="random" departSpeed="10" />
    <vehicle id="E-N_215" type="standard_car" route="E-N" depart="570.0" departLane="random" departSpeed="10" />
    <vehicle id="S-W_216" type="standard_car" route="S-W" depart="572.0" departLane="random" departSpeed="10" />
    <vehicle id="N-W_217" type="standard_car" route="N-W" depart="576.0" departLane="random" departSpeed="10" />
    <vehicle id="E-W_218" type="standard_car" route="E-W" depart="578.0" departLane="random" departSpeed="10" />
    <vehicle id="W-E_219" type="standard_car" route="W-E" depart="583.0" departLane="random" departSpeed="10" />
    <vehicle id="S-E_220" type="standard_car" route="S-E" depart="584.0" departLane="random" departSpeed="10" />
    <vehicle id="S-W_221" type="standard_car" route="S-W" depart="585.0" departLane="random" departSpeed="10" />
    <vehicle id="S-W_222" type="standard_car" route="S-W" depart="588.0" departLane="random" departSpeed="10" />
    <vehicle id="E-N_223" type="standard_car" route="E-N" depart="588.0" departLane="random" departSpeed="10" />
    <vehicle id="W-S_224" type="standard_car" route="W-S" depart="589.0" departLane="random" departSpeed="10" />
    <vehicle id="W-N_225" type="standard_car" route="W-N" depart="592.0" departLane="random" departSpeed="10" />
    <vehicle id="S-N_226" type="standard_car" route="S-N" depart="595.0" departLane="random" departSpeed="10" />
    <vehicle id="W-E_227" type="standard_car" route="W-E" depart="598.0" departLane="random" departSpeed="10" />
    <vehicle id="E-W_228" type="standard_car" route="E-W" depart="599.0" departLane="random" departSpeed="10" />
    <vehicle id="N-W_229" type="standard_car" route="N-W" depart="601.0" departLane="random" departSpeed="10" />
    <vehicle id="W-S_230" type="standard_car" route="W-S" depart="602.0" departLane="random" departSpeed="10" />
    <vehicle id="E-W_231" type="standard_car" route="E-W" depart="602.0" departLane="random" departSpeed="10" />
    <vehicle id="W-S_232" type="standard_car" route="W-S" depart="604.0" departLane="random" departSpeed="10" />
    <vehicle id="N-E_233" type="standard_car" route="N-E" depart="610.0" departLane="random" departSpeed="10" />
    <vehicle id="E-N_234" type="standard_car" route="E-N" depart="614.0" departLane="random" departSpeed="10" />
    <vehicle id="N-W_235" type="standard_car" route="N-W" depart="614.0" departLane="random" departSpeed="10" />
    <vehicle id="W-S_236" type="standard_car" route="W-S" depart="614.0" departLane="random" departSpeed="10" />
    <vehicle id="E-N_237" type="standard_car" route="E-N" depart="614.0" departLane="random" departSpeed="10" />
    <vehicle id="N-S_238" type="standard_car" route="N-S" depart="617.0" departLane="random" departSpeed="10" />
    <vehicle id="E-S_239" type="standard_car" route="E-S" depart="626.0" departLane="random" departSpeed="10" />
    <vehicle id="W-S_240" type="standard_car" route="W-S" depart="627.0" departLane="random" departSpeed="10" />
    <vehicle id="S-N_241" type="standard_car" route="S-N" depart="631.0" departLane="random" departSpeed="10" />
    <vehicle id="N-W_242" type="standard_car" route="N-W" depart="633.0" departLane="random" departSpeed="10" />
    <vehicle id="W-N_243" type="standard_car" route="W-N" depart="636.0" departLane="random" departSpeed="10" />
    <vehicle id="N-S_244" type="standard_car" route="N-S" depart="638.0" departLane="random" departSpeed="10" />
    <vehicle id="E-S_245" type="standard_car" route="E-S" depart="639.0" departLane="random" departSpeed="10" />
    <vehicle id="S-N_246" type="standard_car" route="S-N" depart="640.0" departLane="random" departSpeed="10" />
    <vehicle id="N-E_247" type="standard_car" route="N-E" depart="642.0" departLane="random" departSpeed="10" />
    <vehicle id="W-S_248" type="standard_car" route="W-S" depart="648.0" departLane="random" departSpeed="10" />
    <vehicle id="N-W_249" type="standard_car" route="N-W" depart="652.0" departLane="random" departSpeed="10" />
    <vehicle id="E-W_250" type="standard_car" route="E-W" depart="655.0" departLane="random" departSpeed="10" />
    <vehicle id="E-S_251" type="standard_car" route="E-S" depart="656.0" departLane="random" departSpeed="10" />
    <vehicle id="E-S_252" type="standard_car" route="E-S" depart="659.0" departLane="random" departSpeed="10" />
    <vehicle id="E-N_253" type="standard_car" route="E-N" depart="659.0" departLane="random" departSpeed="10" />
    <vehicle id="N-W_254" type="standard_car" route="N-W" depart="661.0" departLane="random" departSpeed="10" />
    <vehicle id="E-N_255" type="standard_car" route="E-N" depart="664.0" departLane="random" departSpeed="10" />
    <vehicle id="N-E_256" type="standard_car" route="N-E" depart="665.0" departLane="random" departSpeed="10" />
    <vehicle id="E-N_257" type="standard_car" route="E-N" depart="666.0" departLane="random" departSpeed="10" />
    <vehicle id="W-S_258" type="standard_car" route="W-S" depart="673.0" departLane="random" departSpeed="10" />
    <vehicle id="N-W_259" type="standard_car" route="N-W" depart="674.0" departLane="random" departSpeed="10" />