<routes>
            <vType accel="1.0" decel="4.5" id="standard_car" length="5.0" minGap="2.5" maxSpeed="25" sigma="0.5" />
            <route id="N-W" edges="N-TL TL-W"/> 
            <route id="N-S" edges="N-TL TL-S"/>
            <route id="N-E" edges="N-TL TL-E"/> 
        
            <route id="S-E" edges="S-TL TL-E"/>
            <route id="S-N" edges="S-TL TL-N"/>
            <route id="S-W" edges="S-TL TL-W"/> 
            
            <route id="W-S" edges="W-TL TL-S"/>
            <route id="W-E" edges="W-TL TL-E"/>
            <route id="W-N" edges="W-TL TL-N"/> 
            
            <route id="E-N" edges="E-TL TL-N"/>
            <route id="E-W" edges="E-TL TL-W"/>
            <route id="E-S" edges="E-TL TL-S"/> 
    <vehicle id="S-W_0" type="standard_car" route="S-W" depart="5.0" departLane="random" departSpeed="10" />
    <vehicle id="W-E_1" type="standard_car" route="W-E" depart="37.0" departLane="random" departSpeed="10" />
    <vehicle id="N-S_2" type="standard_car" route="N-S" depart="71.0" departLane="random" departSpeed="10" />
    <vehicle id="E-S_3" type="standard_car" route="E-S" depart="77.0" departLane="random" departSpeed="10" />
    <vehicle id="W-S_4" type="standard_car" route="W-S" depart="78.0" departLane="random" departSpeed="10" />
    <vehicle id="W-N_5" type="standard_car" route="W-N" depart="99.0" departLane="random" departSpeed="10" />
    <vehicle id="N-W_6" type="standard_car" route="N-W" depart="117.0" departLane="random" departSpeed="10" />
    <vehicle id="N-E_7" type="standard_car" route="N-E" depart="117.0" departLane="random" departSpeed="10" />
    <vehicle id="E-S_8" type="standard_car" route="E-S" depart="117.0" departLane="random" departSpeed="10" />
    <vehicle id="E-W_9" type="standard_car" route="E-W" depart="120.0" departLane="random" departSpeed="10" />
    <vehicle id="S-E_10" type="standard_car" route="S-E" depart="123.0" departLane="random" departSpeed="10" />
    <vehicle id="W-N_11" type="standard_car" route="W-N" depart="129.0" departLane="random" departSpeed="10" />
    <vehicle id="N-E_12" type="standard_car" route="N-E" depart="131.0" departLane="random" departSpeed="10" />
    <vehicle id="S-W_13" type="standard_car" route="S-W" depart="142.0" departLane="random" departSpeed="10" />
    <vehicle id="W-S_14" type="standard_car" route="W-S" depart="145.0" departLane="random" departSpeed="10" />
    <vehicle id="E-W_15" type="standard_car" route="E-W" depart="145.0" departLane="random" departSpeed="10" />
    <vehicle id="N-S_16" type="standard_car" route="N-S" depart="147.0" departLane="random" departSpeed="10" />
    <vehicle id="S-W_17" type="standard_car" route="S-W" depart="151.0" departLane="random" departSpeed="10" />
    <vehicle id="E-W_18" type="standard_car" route="E-W" depart="153.0" departLane="random" departSpeed="10" />
    <vehicle id="W-N_19" type="standard_car" route="W-N" depart="154.0" departLane="random" departSpeed="10" />
    <vehicle id="E-N_20" type="standard_car" route="E-N" depart="162.0" departLane="random" departSpeed="10" />
    <vehicle id="W-N_21" type="standard_car" route="W-N" depart="162.0" departLane="random" departSpeed="10" />
    <vehicle id="S-N_22" type="standard_car" route="S-N" depart="167.0" departLane="random" departSpeed="10" />
    <vehicle id="E-N_23" type="standard_car" route="E-N" depart="175.0" departLane="random" departSpeed="10" />
    <vehicle id="W-E_24" type="standard_car" route="W-E" depart="177.0" departLane="random" departSpeed="10" />
    <vehicle id="W-E_25" type="standard_car" route="W-E" depart="182.0" departLane="random" departSpeed="10" />
    <vehicle id="W-N_26" type="standard_car" route="W-N" depart="185.0" departLane="random" departSpeed="10" />
    <vehicle id="S-E_27" type="standard_car" route="S-E" depart="191.0" departLane="random" departSpeed="10" />
    <vehicle id="N-E_28" type="standard_car" route="N-E" depart="214.0" departLane="random" departSpeed="10" />
    <vehicle id="W-E_29" type="standard_car" route="W-E" depart="221.0" departLane="random" departSpeed="10" />
    <vehicle id="N-E_30" type="standard_car" route="N-E" depart="227.0" departLane="random" departSpeed="10" />
    <vehicle id="E-N_31" type="standard_car" route="E-N" depart="232.0" departLane="random" departSpeed="10" />
    <vehicle id="S-N_32" type="standard_car" route="S-N" depart="236.0" departLane="random" departSpeed="10" />
    <vehicle id="E-S_33" type="standard_car" route="E-S" depart="240.0" departLane="random" departSpeed="10" />
    <vehicle id="S-E_34" type="standard_car" route="S-E" depart="242.0" departLane="random" departSpeed="10" />
    <vehicle id="S-W_35" type="standard_car" route="S-W" depart="245.0" departLane="random" departSpeed="10" />
    <vehicle id="N-W_36" type="standard_car" route="N-W" depart="246.0" departLane="random" departSpeed="10" />
    <vehicle id="N-W_37" type="standard_car" route="N-W" depart="252.0" departLane="random" departSpeed="10" />
    <vehicle id="E-N_38" type="standard_car" route="E-N" depart="255.0" departLane="random" departSpeed="10" />
    <vehicle id="S-E_39" type="standard_car" route="S-E" depart="256.0" departLane="random" departSpeed="10" />
    <vehicle id="S-N_40" type="standard_car" route="S-N" depart="257.0" departLane="random" departSpeed="10" />
    <vehicle id="W-N_41" type="standard_car" route="W-N" depart="261.0" departLane="random" departSpeed="10" />
    <vehicle id="N-E_42" type="standard_car" route="N-E" depart="262.0" departLane="random" departSpeed="10" />
    <vehicle id="W-S_43" type="standard_car" route="W-S" depart="265.0" departLane="random" departSpeed="10" />
    <vehicle id="N-E_44" type="standard_car" route="N-E" depart="271.0" departLane="random" departSpeed="10" />
    <vehicle id="N-S_45" type="standard_car" route="N-S" depart="277.0" departLane="random" departSpeed="10" />
    <vehicle id="S-N_46" type="standard_car" route="S-N" depart="280.0" departLane="random" departSpeed="10" />
    <vehicle id="E-S_47" type="standard_car" route="E-S" depart="281.0" departLane="random" departSpeed="10" />
    <vehicle id="S-E_48" type="standard_car" route="S-E" depart="283.0" departLane="random" departSpeed="10" />
    <vehicle id="S-N_49" type="standard_car" route="S-N" depart="284.0" departLane="random" departSpeed="10" />
    <vehicle id="W-N_50" type="standard_car" route="W-N" depart="284.0" departLane="random" departSpeed="10" />
    <vehicle id="E-S_51" type="standard_car" route="E-S" depart="285.0" departLane="random" departSpeed="10" />
    <vehicle id="W-S_52" type="standard_car" route="W-S" depart="286.0" departLane="random" departSpeed="10" />
    <vehicle id="W-S_53" type="standard_car" route="W-S" depart="288.0" departLane="random" departSpeed="10" />
    <vehicle id="S-N_54" type="standard_car" route="S-N" depart="289.0" departLane="random" departSpeed="10" />
    <vehicle id="S-W_55" type="standard_car" route="S-W" depart="299.0" departLane="random" departSpeed="10" />
    <vehicle id="E-W_56" type="standard_car" route="E-W" depart="300.0" departLane="random" departSpeed="10" />
    <vehicle id="N-W_57" type="standard_car" route="N-W" depart="302.0" departLane="random" departSpeed="10" />
    <vehicle id="W-E_58" type="standard_car" route="W-E" depart="302.0" departLane="random" departSpeed="10" />
    <vehicle id="E-W_59" type="standard_car" route="E-W" depart="305.0" departLane="random" departSpeed="10" />
    <vehicle id="W-E_60" type="standard_car" route="W-E" depart="305.0" departLane="random" departSpeed="10" />
    <vehicle id="N-S_61" type="standard_car" route="N-S" depart="308.0" departLane="random" departSpeed="10" />
    <vehicle id="E-W_62" type="standard_car" route="E-W" depart="309.0" departLane="random" departSpeed="10" />
    <vehicle id="E-S_63" type="standard_car" route="E-S" depart="323.0" departLane="random" departSpeed="10" />
    <vehicle id="W-E_64" type="standard_car" route="W-E" depart="323.0" departLane="random" departSpeed="10" />
    <vehicle id="S-E_65" type="standard_car" route="S-E" depart="324.0" departLane="random" departSpeed="10" />
    <vehicle id="S-W_66" type="standard_car" route="S-W" depart="326.0" departLane="random" departSpeed="10" />
    <vehicle id="W-E_67" type="standard_car" route="W-E" depart="332.0" departLane="random" departSpeed="10" />
    <vehicle id="E-S_68" type="standard_car" route="E-S" depart="333.0" departLane="random" departSpeed="10" />
    <vehicle id="W-E_69" type="standard_car" route="W-E" depart="335.0" departLane="random" departSpeed="10" />
    <vehicle id="N-W_70" type="standard_car" route="N-W" depart="338.0" departLane="random" departSpeed="10" />
    <vehicle id="E-S_71" type="standard_car" route="E-S" depart="341.0" departLane="random" departSpeed="10" />
    <vehicle id="E-N_72" type="standard_car" route="E-N" depart="342.0" departLane="random" departSpeed="10" />
    <vehicle id="N-W_73" type="standard_car" route="N-W" depart="348.0" departLane="random" departSpeed="10" />
    <vehicle id="N-S_74" type="standard_car" route="N-S" depart="357.0" departLane="random" departSpeed="10" />
    <vehicle id="S-E_75" type="standard_car" route="S-E" depart="358.0" departLane="random" departSpeed="10" />
    <vehicle id="E-N_76" type="standard_car" route="E-N" depart="359.0" departLane="random" departSpeed="10" />
    <vehicle id="S-E_77" type="standard_car" route="S-E" depart="360.0" departLane="random" departSpeed="10" />
    <vehicle id="S-N_78" type="standard_car" route="S-N" depart="362.0" departLane="random" departSpeed="10" />
    <vehicle id="S-N_79" type="standard_car" route="S-N" depart="362.0" departLane="random" departSpeed="10" />
    <vehicle id="S-E_80" type="standard_car" route="S-E" depart="363.0" departLane="random" departSpeed="10" />
    <vehicle id="W-N_81" type="standard_car" route="W-N" depart="368.0" departLane="random" departSpeed="10" />
    <vehicle id="W-S_82" type="standard_car" route="W-S" depart="370.0" departLane="random" departSpeed="10" />
    <vehicle id="S-E_83" type="standard_car" route="S-E" depart="372.0" departLane="random" departSpeed="10" />
    <vehicle id="W-E_84" type="standard_car" route="W-E" depart="373.0" departLane="random" departSpeed="10" />
    <vehicle id="E-W_85" type="standard_car" route="E-W" depart="373.0" departLane="random" departSpeed="10" />
    <vehicle id="E-S_86" type="standard_car" route="E-S" depart="375.0" departLane="random" departSpeed="10" />
    <vehicle id="E-N_87" type="standard_car" route="E-N" depart="376.0" departLane="random" departSpeed="10" />
    <vehicle id="N-E_88" type="standard_car" route="N-E" depart="385.0" departLane="random" departSpeed="10" />
    <vehicle id="S-W_89" type="standard_car" route="S-W" depart="387.0" departLane="random" departSpeed="10" />
    <vehicle id="S-E_90" type="standard_car" route="S-E" depart="388.0" departLane="random" departSpeed="10" />
    <vehicle id="S-W_91" type="standard_car" route="S-W" depart="393.0" departLane="random" departSpeed="10" />
    <vehicle id="E-N_92" type="standard_car" route="E-N" depart="396.0" departLane="random" departSpeed="10" />
    <vehicle id="W-S_93" type="standard_car" route="W-S" depart="403.0" departLane="random" departSpeed="10" />
    <vehicle id="W-E_94" type="standard_car" route="W-E" depart="405.0" departLane="random" departSpeed="10" />
    <vehicle id="N-W_95" type="standard_car" route="N-W" depart="410.0" departLane="random" departSpeed="10" />
    <vehicle id="E-S_96" type="standard_car" route="E-S" depart="410.0" departLane="random" departSpeed="10" />
    <vehicle id="E-S_97" type="standard_car" route="E-S" depart="411.0" departLane="random" departSpeed="10" />
    <vehicle id="S-N_98" type="standard_car" route="S-N" depart="416.0" departLane="random" departSpeed="10" />
    <vehicle id="E-W_99" type="standard_car" route="E-W" depart="421.0" departLane="random" departSpeed="10" />
    <vehicle id="S-W_100" type="standard_car" route="S-W" depart="422.0" departLane="random" departSpeed="10" />
    <vehicle id="W-E_101" type="standard_car" route="W-E" depart="422.0" departLane="random" departSpeed="10" />
    <vehicle id="E-N_102" type="standard_car" route="E-N" depart="425.0" departLane="random" departSpeed="10" />
    <vehicle id="E-W_103" type="standard_car" route="E-W" depart="426.0" departLane="random" departSpeed="10" />
    <vehicle id="W-S_104" type="standard_car" route="W-S" depart="427.0" departLane="random" departSpeed="10" />
    <vehicle id="E-N_105" type="standard_car" route="E-N" depart="431.0" departLane="random" departSpeed="10" />
    <vehicle id="S-W_106" type="standard_car" route="S-W" depart="434.0" departLane="random" departSpeed="10" />
    <vehicle id="W-N_107" type="standard_car" route="W-N" depart="435.0" departLane="random" departSpeed="10" />
    <vehicle id="W-N_108" type="standard_car" route="W-N" depart="441.0" departLane="random" departSpeed="10" />
    <vehicle id="S-N_109" type="standard_car" route="S-N" depart="447.0" departLane="random" departSpeed="10" />
    <vehicle id="W-N_110" type="standard_car" route="W-N" depart="448.0" departLane="random" departSpeed="10" />
    <vehicle id="W-S_111" type="standard_car" route="W-S" depart="449.0" departLane="random" departSpeed="10" />
    <vehicle id="E-N_112" type="standard_car" route="E-N" depart="450.0" departLane="random" departSpeed="10" />
    <vehicle id="S-E_113" type="standard_car" route="S-E" depart="454.0" departLane="random" departSpeed="10" />
    <vehicle id="S-E_114" type="standard_car" route="S-E" depart="457.0" departLane="random" departSpeed="10" />
    <vehicle id="S-W_115" type="standard_car" route="S-W" depart="465.0" departLane="random" departSpeed="10" />
    <vehicle id="W-E_116" type="standard_car" route="W-E" depart="466.0" departLane="random" departSpeed="10" />
    <vehicle id="N-W_117" type="standard_car" route="N-W" depart="466.0" departLane="random" departSpeed="10" />
    <vehicle id="S-N_118" type="standard_car" route="S-N" depart="466.0" departLane="random" departSpeed="10" />
    <vehicle id="W-E_119" type="standard_car" route="W-E" depart="467.0" departLane="random" departSpeed="10" />
    <vehicle id="N-W_120" type="standard_car" route="N-W" depart="469.0" departLane="random" departSpeed="10" />
    <vehicle id="N-S_121" type="standard_car" route="N-S" depart="471.0" departLane="random" departSpeed="10" />
    <vehicle id="S-W_122" type="standard_car" route="S-W" depart="472.0" departLane="random" departSpeed="10" />
    <vehicle id="E-N_123" type="standard_car" route="E-N" depart="473.0" departLane="random" departSpeed="10" />
    <vehicle id="W-S_124" type="standard_car" route="W-S" depart="475.0" departLane="random" departSpeed="10" />
    <vehicle id="E-S_125" type="standard_car" route="E-S" depart="476.0" departLane="random" departSpeed="10" />
    <vehicle id="W-E_126" type="standard_car" route="W-E" depart="477.0" departLane="random" departSpeed="10" />
    <vehicle id="W-N_127" type="standard_car" route="W-N" depart="480.0" departLane="random" departSpeed="10" />
    <vehicle id="S-W_128" type="standard_car" route="S-W" depart="480.0" departLane="random" departSpeed="10" />
    <vehicle id="E-N_129" type="standard_car" route="E-N" depart="483.0" departLane="random" departSpeed="10" />
    <vehicle id="N-W_130" type="standard_car" route="N-W" depart="484.0" departLane="random" departSpeed="10" />
    <vehicle id="W-N_131" type="standard_car" route="W-N" depart="487.0" departLane="random" departSpeed="10" />
    <vehicle id="E-S_132" type="standard_car" route="E-S" depart="487.0" departLane="random" departSpeed="10" />
    <vehicle id="E-S_133" type="standard_car" route="E-S" depart="492.0" departLane="random" departSpeed="10" />
    <vehicle id="N-S_134" type="standard_car" route="N-S" depart="497.0" departLane="random" departSpeed="10" />
    <vehicle id="N-S_135" type="standard_car" route="N-S" depart="502.0" departLane="random" departSpeed="10" />
    <vehicle id="N-S_136" type="standard_car" route="N-S" depart="502.0" departLane="random" departSpeed="10" />
    <vehicle id="W-E_137" type="standard_car" route="W-E" depart="504.0" departLane="random" departSpeed="10" />
    <vehicle id="N-S_138" type="standard_car" route="N-S" depart="505.0" departLane="random" departSpeed="10" />
    <vehicle id="E-W_139" type="standard_car" route="E-W" depart="505.0" departLane="random" departSpeed="10" />
    <vehicle id="N-S_140" type="standard_car" route="N-S" depart="508.0" departLane="random" departSpeed="10" />
    <vehicle id="N-S_141" type="standard_car" route="N-S" depart="509.0" departLane="random" departSpeed="10" />
    <vehicle id="E-S_142" type="standard_car" route="E-S" depart="509.0" departLane="random" departSpeed="10" />
    <vehicle id="W-S_143" type="standard_car" route="W-S" depart="510.0" departLane="random" departSpeed="10" />
    <vehicle id="N-W_144" type="standard_car" route="N-W" depart="514.0" departLane="random" departSpeed="10" />
    <vehicle id="S-E_145" type="standard_car" route="S-E" depart="520.0" departLane="random" departSpeed="10" />
    <vehicle id="E-N_146" type="standard_car" route="E-N" depart="522.0" departLane="random" departSpeed="10" />
    <vehicle id="S-E_147" type="standard_car" route="S-E" depart="525.0" departLane="random" departSpeed="10" />
    <vehicle id="E-N_148" type="standard_car" route="E-N" depart="526.0" departLane="random" departSpeed="10" />
    <vehicle id="N-S_149" type="standard_car" route="N-S" depart="526.0" departLane="random" departSpeed="10" />
    <vehicle id="N-W_150" type="standard_car" route="N-W" depart="527.0" departLane="random" departSpeed="10" />
    <vehicle id="N-W_151" type="standard_car" route="N-W" depart="528.0" departLane="random" departSpeed="10" />
    <vehicle id="N-S_152" type="standard_car" route="N-S" depart="531.0" departLane="random" departSpeed="10" />
    <vehicle id="N-E_153" type="standard_car" route="N-E" depart="531.0" departLane="random" departSpeed="10" />
    <vehicle id="E-W_154" type="standard_car" route="E-W" depart="532.0" departLane="random" departSpeed="10" />
    <vehicle id="E-W_155" type="standard_car" route="E-W" depart="535.0" departLane="random" departSpeed="10" />
    <vehicle id="S-W_156" type="standard_car" route="S-W" depart="535.0" departLane="random" departSpeed="10" />
    <vehicle id="S-N_157" type="standard_car" route="S-N" depart="537.0" departLane="random" departSpeed="10" />
    <vehicle id="S-E_158" type="standard_car" route="S-E" depart="540.0" departLane="random" departSpeed="10" />
    <vehicle id="W-E_159" type="standard_car" route="W-E" depart="540.0" departLane="random" departSpeed="10" />
    <vehicle id="N-E_160" type="standard_car" route="N-E" depart="542.0" departLane="random" departSpeed="10" />
    <vehicle id="W-N_161" type="standard_car" route="W-N" depart="543.0" departLane="random" departSpeed="10" />
    <vehicle id="S-E_162" type="standard_car" route="S-E" depart="546.0" departLane="random" departSpeed="10" />
    <vehicle id="W-N_163" type="standard_car" route="W-N" depart="547.0" departLane="random" departSpeed="10" />
    <vehicle id="N-W_164" type="standard_car" route="N-W" depart="547.0" departLane="random" departSpeed="10" />
    <vehicle id="W-S_165" type="standard_car" route="W-S" depart="549.0" departLane="random" departSpeed="10" />
    <vehicle id="W-N_166" type="standard_car" route="W-N" depart="551.0" departLane="random" departSpeed="10" />
    <vehicle id="S-E_167" type="standard_car" route="S-E" depart="555.0" departLane="random" departSpeed="10" />
    <vehicle id="S-E_168" type="standard_car" route="S-E" depart="556.0" departLane="random" departSpeed="10" />
    <vehicle id="E-N_169" type="standard_car" route="E-N" depart="557.0" departLane="random" departSpeed="10" />
    <vehicle id="S-W_170" type="standard_car" route="S-W" depart="561.0" departLane="random" departSpeed="10" />
    <vehicle id="E-W_171" type="standard_car" route="E-W" depart="562.0" departLane="random" departSpeed="10" />
    <vehicle id="N-W_172" type="standard_car" route="N-W" depart="563.0" departLane="random" departSpeed="10" />
    <vehicle id="N-E_173" type="standard_car" route="N-E" depart="565.0" departLane="random" departSpeed="10" />
    <vehicle id="E-S_174" type="standard_car" route="E-S" depart="566.0" departLane="random" departSpeed="10" />
    <vehicle id="S-E_175" type="standard_car" route="S-E" depart="567.0" departLane="random" departSpeed="10" />
    <vehicle id="N-S_176" type="standard_car" route="N-S" depart="569.0" departLane="random" departSpeed="10" />
    <vehicle id="W-N_177" type="standard_car" route="W-N" depart="572.0" departLane="random" departSpeed="10" />
    <vehicle id="E-W_178" type="standard_car" route="E-W" depart="573.0" departLane="random" departSpeed="10" />
    <vehicle id="W-N_179" type="standard_car" route="W-N" depart="573.0" departLane="random" departSpeed="10" />
    <vehicle id="W-N_180" type="standard_car" route="W-N" depart="574.0" departLane="random" departSpeed="10" />
    <vehicle id="W-S_181" type="standard_car" route="W-S" depart="574.0" departLane="random" departSpeed="10" />
    <vehicle id="S-N_182" type="standard_car" route="S-N" depart="574.0" departLane="random" departSpeed="10" />
    <vehicle id="S-E_183" type="standard_car" route="S-E" depart="575.0" departLane="random" departSpeed="10" />
    <vehicle id="E-N_184" type="standard_car" route="E-N" depart="575.0" departLane="random" departSpeed="10" />
    <vehicle id="S-E_185" type="standard_car" route="S-E" depart="577.0" departLane="random" departSpeed="10" />
    <vehicle id="N-S_186" type="standard_car" route="N-S" depart="578.0" departLane="random" departSpeed="10" />
    <vehicle id="S-N_187" type="standard_car" route="S-N" depart="578.0" departLane="random" departSpeed="10" />
    <vehicle id="N-S_188" type="standard_car" route="N-S" depart="579.0" departLane="random" departSpeed="10" />
    <vehicle id="W-N_189" type="standard_car" route="W-N" depart="581.0" departLane="random" departSpeed="10" />
    <vehicle id="S-N_190" type="standard_car" route="S-N" depart="582.0" departLane="random" departSpeed="10" />
    <vehicle id="S-E_191" type="standard_car" route="S-E" depart="582.0" departLane="random" departSpeed="10" />
    <vehicle id="S-N_192" type="standard_car" route="S-N" depart="585.0" departLane="random" departSpeed="10" />
    <vehicle id="N-S_193" type="standard_car" route="N-S" depart="586.0" departLane="random" departSpeed="10" />
    <vehicle id="E-W_194" type="standard_car" route="E-W" depart="590.0" departLane="random" departSpeed="10" />
    <vehicle id="N-W_195" type="standard_car" route="N-W" depart="592.0" departLane="random" departSpeed="10" />
    <vehicle id="S-E_196" type="standard_car" route="S-E" depart="594.0" departLane="random" departSpeed="10" />
    <vehicle id="E-N_197" type="standard_car" route="E-N" depart="595.0" departLane="random" departSpeed="10" />
    <vehicle id="E-N_198" type="standard_car" route="E-N" depart="596.0" departLane="random" departSpeed="10" />
    <vehicle id="E-N_199" type="standard_car" route="E-N" depart="600.0" departLane="random" departSpeed="10" />
    <vehicle id="E-N_200" type="standard_car" route="E-N" depart="601.0" departLane="random" departSpeed="10" />
    <vehicle id="W-N_201" type="standard_car" route="W-N" depart="603.0" departLane="random" departSpeed="10" />
    <vehicle id="E-W_202" type="standard_car" route="E-W" depart="603.0" departLane="random" departSpeed="10" />
    <vehicle id="S-E_203" type="standard_car" route="S-E" depart="605.0" departLane="random" departSpeed="10" />
    <vehicle id="W-S_204" type="standard_car" route="W-S" depart="605.0" departLane="random" departSpeed="10" />
    <vehicle id="N-E_205" type="standard_car" route="N-E" depart="608.0" departLane="random" departSpeed="10" />
    <vehicle id="W-N_206" type="standard_car" route="W-N" depart="608.0" departLane="random" departSpeed="10" />
    <vehicle id="E-N_207" type="standard_car" route="E-N" depart="610.0" departLane="random" departSpeed="10" />
    <vehicle id="W-E_208" type="standard_car" route="W-E" depart="614.0" departLane="random" departSpeed="10" />
    <vehicle id="S-N_209" type="standard_car" route="S-N" depart="615.0" departLane="random" departSpeed="10" />
    <vehicle id="S-W_210" type="standard_car" route="S-W" depart="616.0" departLane="random" departSpeed="10" />
    <vehicle id="E-N_211" type="standard_car" route="E-N" depart="616.0" departLane="random" departSpeed="10" />
    <vehicle id="E-N_212" type="standard_car" route="E-N" depart="616.0" departLane="random" departSpeed="10" />
    <vehicle id="W-N_213" type="standard_car" route="W-N" depart="617.0" departLane="random" departSpeed="10" />
    <vehicle id="N-S_214" type="standard_car" route="N-S" depart="619.0" departLane="random" departSpeed="10" />
    <vehicle id="W-N_215" type="standard_car" route="W-N" depart="622.0" departLane="random" departSpeed="10" />
    <vehicle id="N-W_216" type="standard_car" route="N-W" depart="622.0" departLane="random" departSpeed="10" />
    <vehicle id="E-N_217" type="standard_car" route="E-N" depart="623.0" departLane="random" departSpeed="10" />
    <vehicle id="S-N_218" type="standard_car" route="S-N" depart="629.0" departLane="random" departSpeed="10" />
    <vehicle id="N-S_219" type="standard_car" route="N-S" depart="633.0" departLane="random" departSpeed="10" />
    <vehicle id="N-S_220" type="standard_car" route="N-S" depart="633.0" departLane="random" departSpeed="10" />
    <vehicle id="N-S_221" type="standard_car" route="N-S" depart="635.0" departLane="random" departSpeed="10" />
    <vehicle id="W-S_222" type="standard_car" route="W-S" depart="635.0" departLane="random" departSpeed="10" />
    <vehicle id="S-E_223" type="standard_car" route="S-E" depart="638.0" departLane="random" departSpeed="10" />
    <vehicle id="S-N_224" type="standard_car" route="S-N" depart="640.0" departLane="random" departSpeed="10" />
    <vehicle id="E-S_225" type="standard_car" route="E-S" depart="641.0" departLane="random" departSpeed="10" />
    <vehicle id="S-E_226" type="standard_car" route="S-E" depart="646.0" departLane="random" departSpeed="10" />
    <vehicle id="N-W_227" type="standard_car" route="N-W" depart="647.0" departLane="random" departSpeed="10" />
    <vehicle id="S-W_228" type="standard_car" route="S-W" depart="651.0" departLane="random" departSpeed="10" />
    <vehicle id="E-W_229" type="standard_car" route="E-W" depart="654.0" departLane="random" departSpeed="10" />
    <vehicle id="S-N_230" type="standard_car" route="S-N" depart="654.0" departLane="random" departSpeed="10" />
    <vehicle id="E-W_231" type="standard_car" route="E-W" depart="655.0" departLane="random" departSpeed="10" />
    <vehicle id="E-W_232" type="standard_car" route="E-W" depart="655.0" departLane="random" departSpeed="10" />
    <vehicle id="S-N_233" type="standard_car" route="S-N" depart="655.0" departLane="random" departSpeed="10" />
    <vehicle id="S-N_234" type="standard_car" route="S-N" depart="657.0" departLane="random" departSpeed="10" />
    <vehicle id="S-E_235" type="standard_car" route="S-E" depart="657.0" departLane="random" departSpeed="10" />
    <vehicle id="E-W_236" type="standard_car" route="E-W" depart="659.0" departLane="random" departSpeed="10" />
    <vehicle id="S-W_237" type="standard_car" route="S-W" depart="659.0" departLane="random" departSpeed="10" />
    <vehicle id="E-N_238" type="standard_car" route="E-N" depart="660.0" departLane="random" departSpeed="10" />
    <vehicle id="N-S_239" type="standard_car" route="N-S" depart="661.0" departLane="random" departSpeed="10" />
    <vehicle id="S-W_240" type="standard_car" route="S-W" depart="663.0" departLane="random" departSpeed="10" />
    <vehicle id="E-N_241" type="standard_car" route="E-N" depart="664.0" departLane="random" departSpeed="10" />
    <vehicle id="N-E_242" type="standard_car" route="N-E" depart="666.0" departLane="random" departSpeed="10" />
    <vehicle id="E-W_243" type="standard_car" route="E-W" depart="667.0" departLane="random" departSpeed="10" />
    <vehicle id="N-E_244" type="standard_car" route="N-E" depart="668.0" departLane="random" departSpeed="10" />
    <vehicle id="E-W_245" type="standard_car" route="E-W" depart="668.0" departLane="random" departSpeed="10" />
    <vehicle id="N-W_246" type="standard_car" route="N-W" depart="668.0" departLane="random" departSpeed="10" />
    <vehicle id="E-N_247" type="standard_car" route="E-N" depart="669.0" departLane="random" departSpeed="10" />
    <vehicle id="W-N_248" type="standard_car" route="W-N" depart="670.0" departLane="random" departSpeed="10" />
    <vehicle id="S-E_249" type="standard_car" route="S-E" depart="670.0" departLane="random" departSpeed="10" />
    <vehicle id="W-S_250" type="standard_car" route="W-S" depart="671.0" departLane="random" departSpeed="10" />
    <vehicle id="W-E_251" type="standard_car" route="W-E" depart="672.0" departLane="random" departSpeed="10" />
    <vehicle id="N-S_252" type="standard_car" route="N-S" depart="672.0" departLane="random" departSpeed="10" />
    <vehicle id="W-E_253" type="standard_car" route="W-E" depart="673.0" departLane="random" departSpeed="10" />
    <vehicle id="S-N_254" type="standard_car" route="S-N" depart="676.0" departLane="random" departSpeed="10" />
    <vehicle id="S-N_255" type="standard_car" route="S-N" depart="676.0" departLane="random" departSpeed="10" />
    <vehicle id="E-W_256" type="standard_car" route="E-W" depart="676.0" departLane="random" departSpeed="10" />
    <vehicle id="E-S_257" type="standard_car" route="E-S" depart="677.0" departLane="random" departSpeed="10" />
    <vehicle id="E-W_258" type="standard_car" route="E-W" depart="677.0" departLane="random" departSpeed="10" />