<additional>
    <tlLogic id="TL_1" type="static" programID="0" offset="0">
        <phase duration="38" state="GGGrrrrrGGGrrrrr"/>
        <phase duration="3"  state="yyyrrrrryyyrrrrr"/>
        <phase duration="6"  state="rrrGrrrrrrrGrrrr"/>
        <phase duration="3"  state="rrryrrrrrrryrrrr"/>
        <phase duration="37" state="rrrrGGGGrrrrGGGG"/>
        <phase duration="3"  state="rrrryyyyrrrryyyy"/>
    </tlLogic>
    <tlLogic id="TL_2" type="static" programID="0" offset="0">
        <phase duration="38" state="GGGGrrrrGGGGrrrr"/>
        <phase duration="3"  state="yyyyrrrryyyyrrrr"/>
        <phase duration="37" state="rrrrGGGrrrrrGGGr"/>
        <phase duration="3"  state="rrrryyyrrrrryyyr"/>
        <phase duration="6"  state="rrrrrrrGrrrrrrrG"/>
        <phase duration="3"  state="rrrrrrryrrrrrrry"/>
</additional>